 &time_control
 run_days                            = 0,
 run_hours                           = 24,
 run_minutes                         = 0,
 run_seconds                         = 0,
 start_year                          = 2022,
 start_month                         = 06,
 start_day                           = 01,
 start_hour                          = 00,
 end_year                            = 2022,
 end_month                           = 06,
 end_day                             = 02,
 end_hour                            = 00,
 interval_seconds                    = 3600
 input_from_file                     = .true.,
 history_interval                    = 60,
 frames_per_outfile                  = 1,
 restart                             = .false.,
 restart_interval                    = 3600,
 io_form_history                     = 2,
 io_form_restart                     = 2,
 io_form_input                       = 2,
 io_form_boundary                    = 2,
 auxhist23_outname                   = 'auxhist23_d<domain>_<date>',
 auxhist23_interval                  = 60,
 io_form_auxhist23                   = 2,
 frames_per_auxhist23                = 1,
 /

 &domains
 time_step                           = 20,
 time_step_fract_num                 = 0,
 time_step_fract_den                 = 1,
 max_dom                             = 1,
 e_we                                = 700,
 e_sn                                = 500,
 e_vert                              = 45,
 dzstretch_s                         = 1.1
 p_top_requested                     = 5000,
 num_metgrid_levels                  = 34,
 num_metgrid_soil_levels             = 4,
 dx                                  = 6000,
 dy                                  = 6000,
 grid_id                             = 1,
 parent_id                           = 0,
 i_parent_start                      = 1,
 j_parent_start                      = 1,
 parent_grid_ratio                   = 1,
 parent_time_step_ratio              = 1,
 feedback                            = 1,
 smooth_option                       = 0
 /

 &physics
 mp_physics                          = 6,
 cu_physics                          = 16,
 ra_lw_physics                       = 4,
 ra_sw_physics                       = 4,
 bl_pbl_physics                      = 1,
 sf_sfclay_physics                   = 91,
 sf_surface_physics                  = 2,
 radt                                = 15,
 bldt                                = 0,
 cudt                                = 0,
 icloud                              = 1,
 num_land_cat                        = 21,
 sf_urban_physics                    = 0,     0,
 fractional_seaice                   = 1,
 /

 &fdda
 /

 &dynamics
 hybrid_opt                          = 2, 
 w_damping                           = 0,
 diff_opt                            = 2,
 km_opt                              = 4,
 diff_6th_opt                        = 0,
 diff_6th_factor                     = 0.12,
 base_temp                           = 290.
 damp_opt                            = 3,
 zdamp                               = 5000.,
 dampcoef                            = 0.2,
 khdif                               = 0,
 kvdif                               = 0,
 non_hydrostatic                     = .true.,
 moist_adv_opt                       = 1,
 scalar_adv_opt                      = 1,
 gwd_opt                             = 1,
 /

 &bdy_control
 spec_bdy_width                      = 5,
 specified                           = .true.
 /

 &diags
 p_lev_diags                         = 1,
 num_press_levels                    = 5,
 press_levels                        = 92500, 85000, 50000, 30000, 20000,
 use_tot_or_hyd_p                    = 1,
 /

 &grib2
 /

 &namelist_quilt
 nio_tasks_per_group = 0,
 nio_groups = 1,
 /
